Version 4
SHEET 1 1376 680
WIRE 416 128 400 128
WIRE -160 160 -240 160
WIRE -96 160 -160 160
WIRE 208 160 -16 160
WIRE 320 160 208 160
WIRE 416 160 320 160
WIRE -240 176 -240 160
WIRE 608 176 576 176
WIRE 704 176 608 176
WIRE 208 192 208 160
WIRE 416 192 320 192
WIRE 704 192 704 176
WIRE 416 224 400 224
WIRE -480 272 -480 240
WIRE -480 272 -544 272
WIRE -240 272 -240 256
WIRE -544 288 -544 272
WIRE -480 288 -480 272
WIRE 208 304 208 272
WIRE 320 320 320 192
WIRE 416 320 320 320
WIRE 608 320 608 176
WIRE 608 320 496 320
WIRE 320 352 320 320
WIRE 320 448 320 432
FLAG -240 272 0
FLAG -544 288 0
FLAG -480 160 +Vcc
FLAG -480 368 -Vcc
FLAG 704 272 0
FLAG 320 448 0
FLAG 704 176 Vout
FLAG 208 304 0
FLAG 400 128 +Vcc
FLAG 400 224 -Vcc
FLAG 320 160 Vp
FLAG 320 192 Vn
FLAG -160 160 Vsig
SYMBOL res 304 336 R0
SYMATTR InstName R5
SYMATTR Value 470
SYMBOL voltage -480 144 R0
WINDOW 123 0 0 Left 2
WINDOW 39 0 0 Left 2
SYMATTR InstName V1
SYMATTR Value 15
SYMBOL voltage -480 272 R0
WINDOW 123 0 0 Left 2
WINDOW 39 0 0 Left 2
SYMATTR InstName V2
SYMATTR Value 15
SYMBOL voltage -240 160 R0
WINDOW 123 24 124 Left 2
WINDOW 39 24 152 Left 2
SYMATTR Value2 AC 0.5
SYMATTR InstName V3
SYMATTR Value PULSE(0 100m 0.5u 1ns 1ns 1u 2u)
SYMBOL res 688 176 R0
SYMATTR InstName RL
SYMATTR Value 8
SYMBOL res 512 304 R90
WINDOW 0 0 56 VBottom 2
WINDOW 3 32 56 VTop 2
SYMATTR InstName R6
SYMATTR Value 4.7k
SYMBOL res 192 176 R0
SYMATTR InstName R7
SYMATTR Value 4.7k
SYMBOL res 0 144 R90
WINDOW 0 0 56 VBottom 2
WINDOW 3 32 56 VTop 2
SYMATTR InstName R15
SYMATTR Value 470
SYMBOL AudioAmp 496 176 R0
SYMATTR InstName X1
TEXT -288 384 Left 2 !.tran 0 2u 0 1u
TEXT -280 344 Left 2 !.FOUR 1khz 51 V(Vout)
TEXT -280 416 Left 2 !;ac dec 51 1 100meg
