Version 4
SHEET 1 1624 728
WIRE -432 -688 -672 -688
WIRE -112 -688 -432 -688
WIRE 128 -688 -112 -688
WIRE 880 -688 128 -688
WIRE 1040 -688 880 -688
WIRE 1120 -688 1040 -688
WIRE 880 -672 880 -688
WIRE 128 -624 128 -688
WIRE 1040 -608 1040 -688
WIRE 880 -560 880 -592
WIRE 976 -560 880 -560
WIRE 128 -528 128 -544
WIRE 880 -528 880 -560
WIRE 64 -480 -576 -480
WIRE 528 -480 400 -480
WIRE 816 -480 528 -480
WIRE 128 -400 128 -432
WIRE 128 -400 32 -400
WIRE 272 -400 128 -400
WIRE 880 -400 880 -432
WIRE 912 -400 880 -400
WIRE 1040 -400 1040 -512
WIRE 1040 -400 992 -400
WIRE 272 -384 272 -400
WIRE 880 -384 880 -400
WIRE 128 -368 128 -400
WIRE 528 -336 528 -480
WIRE -432 -304 -432 -688
WIRE -112 -288 -112 -688
WIRE 272 -288 272 -304
WIRE 400 -288 400 -480
WIRE 400 -288 272 -288
WIRE 624 -288 592 -288
WIRE 704 -288 624 -288
WIRE 1040 -288 1040 -400
WIRE 1040 -288 784 -288
WIRE 624 -272 624 -288
WIRE 1040 -272 1040 -288
WIRE -672 -256 -672 -688
WIRE 272 -256 272 -288
WIRE 32 -224 32 -400
WIRE -432 -208 -432 -224
WIRE -432 -208 -608 -208
WIRE 128 -208 128 -288
WIRE 208 -208 128 -208
WIRE -432 -176 -432 -208
WIRE 128 -176 128 -208
WIRE 528 -176 528 -240
WIRE 1040 -176 1040 -192
WIRE 1040 -176 528 -176
WIRE 1120 -176 1040 -176
WIRE -672 -128 -672 -160
WIRE -576 -128 -576 -480
WIRE -576 -128 -672 -128
WIRE -496 -128 -576 -128
WIRE 624 -128 624 -192
WIRE 752 -128 624 -128
WIRE 880 -128 880 -304
WIRE 880 -128 752 -128
WIRE 1040 -128 1040 -176
WIRE -672 -112 -672 -128
WIRE 624 -96 624 -128
WIRE 752 -96 752 -128
WIRE 128 -80 128 -96
WIRE -432 -48 -432 -80
WIRE -432 -48 -512 -48
WIRE -368 -48 -432 -48
WIRE 528 -48 528 -176
WIRE -512 -16 -512 -48
WIRE -368 -16 -368 -48
WIRE -672 0 -672 -32
WIRE 624 0 624 -16
WIRE 624 0 592 0
WIRE 704 0 624 0
WIRE 1040 0 1040 -48
WIRE 1040 0 784 0
WIRE 32 16 32 -160
WIRE 32 16 -192 16
WIRE 128 16 128 0
WIRE 128 16 32 16
WIRE 272 16 272 -160
WIRE 272 16 128 16
WIRE 400 16 272 16
WIRE 880 16 880 -128
WIRE -192 48 -192 16
WIRE 128 64 128 16
WIRE -112 112 -112 -208
WIRE 64 112 -112 112
WIRE 880 112 880 96
WIRE 912 112 880 112
WIRE 1040 112 1040 0
WIRE 1040 112 992 112
WIRE -512 128 -512 64
WIRE -368 128 -368 64
WIRE -112 144 -112 112
WIRE 880 144 880 112
WIRE 400 192 400 16
WIRE 528 192 528 48
WIRE 528 192 400 192
WIRE 816 192 528 192
WIRE 128 208 128 160
WIRE 1040 224 1040 112
WIRE -512 256 -512 224
WIRE -192 256 -192 112
WIRE -192 256 -512 256
WIRE -16 256 -192 256
WIRE 64 256 -16 256
WIRE -368 272 -368 224
WIRE -368 272 -432 272
WIRE -16 272 -16 256
WIRE 880 272 880 240
WIRE 976 272 880 272
WIRE -512 288 -512 256
WIRE -368 288 -368 272
WIRE 880 304 880 272
WIRE 128 320 128 304
WIRE 128 320 48 320
WIRE -432 336 -432 272
WIRE -432 336 -448 336
WIRE -512 400 -512 384
WIRE -368 400 -368 384
WIRE -368 400 -512 400
WIRE -112 400 -112 208
WIRE -112 400 -368 400
WIRE -16 400 -16 368
WIRE -16 400 -112 400
WIRE 128 400 -16 400
WIRE 880 400 880 384
WIRE 880 400 128 400
WIRE 1040 400 1040 320
WIRE 1040 400 880 400
WIRE 1120 400 1040 400
FLAG 1120 -688 +Vcc
IOPIN 1120 -688 In
FLAG 1120 400 -Vcc
IOPIN 1120 400 In
FLAG 1120 -176 Vout
IOPIN 1120 -176 Out
FLAG -576 176 Vp
IOPIN -576 176 In
FLAG -304 176 Vn
IOPIN -304 176 In
FLAG -672 0 0
FLAG 752 -96 0
SYMBOL pnp -576 224 M180
WINDOW 3 -7 125 Left 2
SYMATTR Value BC557B
SYMATTR InstName Q1
SYMBOL pnp -304 224 R180
WINDOW 3 -3 117 Left 2
SYMATTR Value BC557B
SYMATTR InstName Q2
SYMBOL npn 64 208 R0
SYMATTR InstName Q7
SYMATTR Value BC547C
SYMBOL cap -208 48 R0
SYMATTR InstName C1
SYMATTR Value 44p
SYMBOL res -528 -32 R0
SYMATTR InstName R5
SYMATTR Value 10
SYMBOL res -384 -32 R0
SYMATTR InstName R6
SYMATTR Value 10
SYMBOL npn -432 288 R0
SYMATTR InstName Q8
SYMATTR Value BC547C
SYMBOL npn -448 288 M0
SYMATTR InstName Q9
SYMATTR Value BC547C
SYMBOL pnp -496 -80 M180
WINDOW 3 74 71 Left 2
SYMATTR Value BC557B
SYMATTR InstName Q10
SYMBOL pnp -608 -160 R180
WINDOW 3 -3 117 Left 2
SYMATTR Value BC557B
SYMATTR InstName Q11
SYMBOL res -448 -320 R0
SYMATTR InstName R7
SYMATTR Value 140
SYMBOL res -688 -128 R0
SYMATTR InstName R8
SYMATTR Value 10k
SYMBOL res 112 -640 R0
SYMATTR InstName R9
SYMATTR Value 100
SYMBOL res 112 304 R0
SYMATTR InstName R10
SYMATTR Value 58
SYMBOL npn 64 64 R0
SYMATTR InstName Q12
SYMATTR Value BC547C
SYMBOL zener -96 208 R180
WINDOW 0 40 31 Left 2
WINDOW 3 -159 29 Left 2
SYMATTR InstName D6
SYMATTR Value BZX84C6V2L
SYMBOL res -128 -304 R0
SYMATTR InstName R11
SYMATTR Value 22k
SYMBOL pnp 64 -432 M180
WINDOW 3 74 71 Left 2
SYMATTR Value BC557B
SYMATTR InstName Q13
SYMBOL npn 208 -256 R0
SYMATTR InstName Q14
SYMATTR Value BC547C
SYMBOL res 112 -384 R0
SYMATTR InstName R12
SYMATTR Value 10k
SYMBOL res 112 -192 R0
SYMATTR InstName R13
SYMATTR Value 1k
SYMBOL res 256 -400 R0
SYMATTR InstName R14
SYMATTR Value 10
SYMBOL res 112 -96 R0
SYMATTR InstName R15
SYMATTR Value 1k6
SYMBOL cap 16 -224 R0
SYMATTR InstName C2
SYMATTR Value 47µ
SYMBOL pnp 976 -512 M180
SYMATTR InstName Q15
SYMBOL npn 816 -528 R0
SYMATTR InstName Q16
SYMBOL npn 976 224 R0
SYMATTR InstName Q17
SYMBOL pnp 816 240 M180
SYMATTR InstName Q18
SYMBOL res 1024 -288 R0
SYMATTR InstName R16
SYMATTR Value 0R33
SYMBOL res 1024 -144 R0
SYMATTR InstName R17
SYMATTR Value 0R33
SYMBOL res 864 -688 R0
SYMATTR InstName R18
SYMATTR Value 220
SYMBOL res 864 288 R0
SYMATTR InstName R19
SYMATTR Value 220
SYMBOL res 1008 -416 R90
WINDOW 0 0 56 VBottom 2
WINDOW 3 32 56 VTop 2
SYMATTR InstName R1
SYMATTR Value 47
SYMBOL res 1008 96 R90
WINDOW 0 0 56 VBottom 2
WINDOW 3 32 56 VTop 2
SYMATTR InstName R2
SYMATTR Value 47
SYMBOL res 896 -288 R180
WINDOW 0 36 76 Left 2
WINDOW 3 36 40 Left 2
SYMATTR InstName R3
SYMATTR Value 47
SYMBOL res 896 112 R180
WINDOW 0 36 76 Left 2
WINDOW 3 36 40 Left 2
SYMATTR InstName R4
SYMATTR Value 47
SYMBOL npn 48 272 M0
SYMATTR InstName Q3
SYMATTR Value BC547C
SYMBOL npn 592 -336 M0
SYMATTR InstName Q4
SYMATTR Value BC547C
SYMBOL pnp 592 48 R180
WINDOW 3 74 71 Left 2
SYMATTR Value BC557B
SYMATTR InstName Q5
SYMBOL res 608 -112 R0
SYMATTR InstName R20
SYMATTR Value 10k
SYMBOL res 608 -288 R0
SYMATTR InstName R21
SYMATTR Value 10k
SYMBOL res 800 -16 R90
WINDOW 0 0 56 VBottom 2
WINDOW 3 32 56 VTop 2
SYMATTR InstName R22
SYMATTR Value 68
SYMBOL res 800 -304 R90
WINDOW 0 0 56 VBottom 2
WINDOW 3 32 56 VTop 2
SYMATTR InstName R23
SYMATTR Value 68
