Version 4
SHEET 1 1588 728
WIRE -432 -688 -672 -688
WIRE -112 -688 -432 -688
WIRE 128 -688 -112 -688
WIRE 544 -688 128 -688
WIRE 688 -688 544 -688
WIRE 752 -688 688 -688
WIRE 128 -624 128 -688
WIRE 128 -528 128 -544
WIRE 64 -480 -576 -480
WIRE 544 -416 544 -688
WIRE 128 -400 128 -432
WIRE 128 -400 32 -400
WIRE 272 -400 128 -400
WIRE 272 -384 272 -400
WIRE 128 -368 128 -400
WIRE 480 -368 400 -368
WIRE 688 -336 688 -688
WIRE -432 -304 -432 -688
WIRE -112 -288 -112 -688
WIRE 544 -288 544 -320
WIRE 624 -288 544 -288
WIRE 272 -272 272 -304
WIRE 400 -272 400 -368
WIRE 400 -272 272 -272
WIRE -672 -256 -672 -688
WIRE 272 -256 272 -272
WIRE 32 -224 32 -400
WIRE -432 -208 -432 -224
WIRE -432 -208 -608 -208
WIRE 128 -208 128 -288
WIRE 208 -208 128 -208
WIRE 688 -208 688 -240
WIRE -432 -176 -432 -208
WIRE 128 -176 128 -208
WIRE 544 -160 544 -288
WIRE -672 -128 -672 -160
WIRE -576 -128 -576 -480
WIRE -576 -128 -672 -128
WIRE -496 -128 -576 -128
WIRE -672 -112 -672 -128
WIRE 688 -112 688 -128
WIRE 752 -112 688 -112
WIRE 688 -96 688 -112
WIRE 128 -80 128 -96
WIRE -432 -48 -432 -80
WIRE -432 -48 -512 -48
WIRE -368 -48 -432 -48
WIRE -512 -16 -512 -48
WIRE -368 -16 -368 -48
WIRE -672 0 -672 -32
WIRE 32 16 32 -160
WIRE 32 16 -192 16
WIRE 128 16 128 0
WIRE 128 16 32 16
WIRE 272 16 272 -160
WIRE 272 16 128 16
WIRE 400 16 272 16
WIRE 688 16 688 -16
WIRE -192 48 -192 16
WIRE 128 64 128 16
WIRE 544 64 544 -80
WIRE 624 64 544 64
WIRE 544 96 544 64
WIRE -112 112 -112 -208
WIRE 64 112 -112 112
WIRE -512 128 -512 64
WIRE -368 128 -368 64
WIRE -112 144 -112 112
WIRE 400 144 400 16
WIRE 480 144 400 144
WIRE 128 208 128 160
WIRE -512 256 -512 224
WIRE -192 256 -192 112
WIRE -192 256 -512 256
WIRE 64 256 -192 256
WIRE -368 272 -368 224
WIRE -368 272 -432 272
WIRE -512 288 -512 256
WIRE -368 288 -368 272
WIRE 128 320 128 304
WIRE -432 336 -432 272
WIRE -432 336 -448 336
WIRE -512 400 -512 384
WIRE -368 400 -368 384
WIRE -368 400 -512 400
WIRE -112 400 -112 208
WIRE -112 400 -368 400
WIRE 128 400 -112 400
WIRE 544 400 544 192
WIRE 544 400 128 400
WIRE 688 400 688 112
WIRE 688 400 544 400
WIRE 752 400 688 400
FLAG 752 -688 +Vcc
IOPIN 752 -688 In
FLAG 752 400 -Vcc
IOPIN 752 400 In
FLAG 752 -112 Vout
IOPIN 752 -112 Out
FLAG -576 176 Vp
IOPIN -576 176 In
FLAG -304 176 Vn
IOPIN -304 176 In
FLAG -672 0 0
SYMBOL pnp -576 224 M180
WINDOW 3 -7 125 Left 2
SYMATTR Value BC557B
SYMATTR InstName Q1
SYMBOL pnp -304 224 R180
WINDOW 3 -3 117 Left 2
SYMATTR Value BC557B
SYMATTR InstName Q2
SYMBOL npn 64 208 R0
SYMATTR InstName Q7
SYMATTR Value BC547C
SYMBOL cap -208 48 R0
SYMATTR InstName C1
SYMATTR Value 33p
SYMBOL res -528 -32 R0
SYMATTR InstName R5
SYMATTR Value 10
SYMBOL res -384 -32 R0
SYMATTR InstName R6
SYMATTR Value 10
SYMBOL npn -432 288 R0
SYMATTR InstName Q8
SYMATTR Value BC547C
SYMBOL npn -448 288 M0
SYMATTR InstName Q9
SYMATTR Value BC547C
SYMBOL pnp -496 -80 M180
WINDOW 3 74 71 Left 2
SYMATTR Value BC557B
SYMATTR InstName Q10
SYMBOL pnp -608 -160 R180
WINDOW 3 -3 117 Left 2
SYMATTR Value BC557B
SYMATTR InstName Q11
SYMBOL res -448 -320 R0
SYMATTR InstName R7
SYMATTR Value 140
SYMBOL res -688 -128 R0
SYMATTR InstName R8
SYMATTR Value 10k
SYMBOL res 112 -640 R0
SYMATTR InstName R9
SYMATTR Value 100
SYMBOL res 112 304 R0
SYMATTR InstName R10
SYMATTR Value 58
SYMBOL npn 64 64 R0
SYMATTR InstName Q12
SYMATTR Value BC547C
SYMBOL zener -96 208 R180
WINDOW 0 40 31 Left 2
WINDOW 3 -159 29 Left 2
SYMATTR InstName D6
SYMATTR Value BZX84C6V2L
SYMBOL res -128 -304 R0
SYMATTR InstName R11
SYMATTR Value 22k
SYMBOL pnp 64 -432 M180
WINDOW 3 74 71 Left 2
SYMATTR Value BC557B
SYMATTR InstName Q13
SYMBOL npn 208 -256 R0
SYMATTR InstName Q14
SYMATTR Value BC547C
SYMBOL res 112 -384 R0
SYMATTR InstName R12
SYMATTR Value 10k
SYMBOL res 112 -192 R0
SYMATTR InstName R13
SYMATTR Value 1k
SYMBOL res 256 -400 R0
SYMATTR InstName R14
SYMATTR Value 10
SYMBOL res 112 -96 R0
SYMATTR InstName R15
SYMATTR Value 1k6
SYMBOL cap 16 -224 R0
SYMATTR InstName C2
SYMATTR Value 47µ
SYMBOL npn 624 -336 R0
SYMATTR InstName Q15
SYMBOL npn 480 -416 R0
SYMATTR InstName Q16
SYMBOL pnp 624 112 M180
SYMATTR InstName Q17
SYMBOL res 672 -224 R0
SYMATTR InstName R16
SYMATTR Value 0R22
SYMBOL res 672 -112 R0
SYMATTR InstName R17
SYMATTR Value 0R22
SYMBOL pnp 480 192 M180
SYMATTR InstName Q18
SYMBOL res 528 -176 R0
SYMATTR InstName R18
SYMATTR Value 220
