Version 4
SHEET 1 1624 728
WIRE -432 -688 -672 -688
WIRE -112 -688 -432 -688
WIRE 128 -688 -112 -688
WIRE 640 -688 128 -688
WIRE 800 -688 640 -688
WIRE 880 -688 800 -688
WIRE 640 -672 640 -688
WIRE 128 -624 128 -688
WIRE 800 -608 800 -688
WIRE 640 -560 640 -592
WIRE 736 -560 640 -560
WIRE 128 -528 128 -544
WIRE 640 -528 640 -560
WIRE 64 -480 -576 -480
WIRE 496 -480 368 -480
WIRE 576 -480 496 -480
WIRE 128 -400 128 -432
WIRE 128 -400 32 -400
WIRE 272 -400 128 -400
WIRE 640 -400 640 -432
WIRE 800 -400 800 -512
WIRE 800 -400 640 -400
WIRE 272 -384 272 -400
WIRE 128 -368 128 -400
WIRE 496 -336 496 -480
WIRE -432 -304 -432 -688
WIRE -112 -288 -112 -688
WIRE 272 -288 272 -304
WIRE 368 -288 368 -480
WIRE 368 -288 272 -288
WIRE 592 -288 560 -288
WIRE 672 -288 592 -288
WIRE 800 -288 800 -400
WIRE 800 -288 752 -288
WIRE 592 -272 592 -288
WIRE 800 -272 800 -288
WIRE -672 -256 -672 -688
WIRE 272 -256 272 -288
WIRE 32 -224 32 -400
WIRE -432 -208 -432 -224
WIRE -432 -208 -608 -208
WIRE 128 -208 128 -288
WIRE 208 -208 128 -208
WIRE -432 -176 -432 -208
WIRE 128 -176 128 -208
WIRE 496 -176 496 -240
WIRE 800 -176 800 -192
WIRE 800 -176 496 -176
WIRE 880 -176 800 -176
WIRE -672 -128 -672 -160
WIRE -576 -128 -576 -480
WIRE -576 -128 -672 -128
WIRE -496 -128 -576 -128
WIRE 592 -128 592 -192
WIRE 720 -128 592 -128
WIRE 800 -128 800 -176
WIRE -672 -112 -672 -128
WIRE 592 -96 592 -128
WIRE 720 -96 720 -128
WIRE 128 -80 128 -96
WIRE -432 -48 -432 -80
WIRE -432 -48 -512 -48
WIRE -368 -48 -432 -48
WIRE 496 -48 496 -176
WIRE -512 -16 -512 -48
WIRE -368 -16 -368 -48
WIRE -672 0 -672 -32
WIRE 592 0 592 -16
WIRE 592 0 560 0
WIRE 672 0 592 0
WIRE 800 0 800 -48
WIRE 800 0 752 0
WIRE 32 16 32 -160
WIRE 32 16 -192 16
WIRE 128 16 128 0
WIRE 128 16 32 16
WIRE 272 16 272 -160
WIRE 272 16 128 16
WIRE 368 16 272 16
WIRE -192 48 -192 16
WIRE 128 64 128 16
WIRE -112 112 -112 -208
WIRE 64 112 -112 112
WIRE 800 112 800 0
WIRE 800 112 640 112
WIRE -512 128 -512 64
WIRE -368 128 -368 64
WIRE -112 144 -112 112
WIRE 640 144 640 112
WIRE 368 192 368 16
WIRE 496 192 496 48
WIRE 496 192 368 192
WIRE 576 192 496 192
WIRE 128 208 128 160
WIRE 800 224 800 112
WIRE -512 256 -512 224
WIRE -192 256 -192 112
WIRE -192 256 -512 256
WIRE -16 256 -192 256
WIRE 64 256 -16 256
WIRE -368 272 -368 224
WIRE -368 272 -432 272
WIRE -16 272 -16 256
WIRE 640 272 640 240
WIRE 736 272 640 272
WIRE -512 288 -512 256
WIRE -368 288 -368 272
WIRE 640 304 640 272
WIRE 128 320 128 304
WIRE 128 320 48 320
WIRE -432 336 -432 272
WIRE -432 336 -448 336
WIRE -512 400 -512 384
WIRE -368 400 -368 384
WIRE -368 400 -512 400
WIRE -112 400 -112 208
WIRE -112 400 -368 400
WIRE -16 400 -16 368
WIRE -16 400 -112 400
WIRE 128 400 -16 400
WIRE 640 400 640 384
WIRE 640 400 128 400
WIRE 800 400 800 320
WIRE 800 400 640 400
WIRE 880 400 800 400
FLAG 880 -688 +Vcc
IOPIN 880 -688 In
FLAG 880 400 -Vcc
IOPIN 880 400 In
FLAG 880 -176 Vout
IOPIN 880 -176 Out
FLAG -576 176 Vp
IOPIN -576 176 In
FLAG -304 176 Vn
IOPIN -304 176 In
FLAG -672 0 0
FLAG 720 -96 0
SYMBOL pnp -576 224 M180
WINDOW 3 -7 125 Left 2
SYMATTR Value BC557B
SYMATTR InstName Q1
SYMBOL pnp -304 224 R180
WINDOW 3 -3 117 Left 2
SYMATTR Value BC557B
SYMATTR InstName Q2
SYMBOL npn 64 208 R0
SYMATTR InstName Q7
SYMATTR Value BC547C
SYMBOL cap -208 48 R0
SYMATTR InstName C1
SYMATTR Value 44p
SYMBOL res -528 -32 R0
SYMATTR InstName R5
SYMATTR Value 10
SYMBOL res -384 -32 R0
SYMATTR InstName R6
SYMATTR Value 10
SYMBOL npn -432 288 R0
SYMATTR InstName Q8
SYMATTR Value BC547C
SYMBOL npn -448 288 M0
SYMATTR InstName Q9
SYMATTR Value BC547C
SYMBOL pnp -496 -80 M180
WINDOW 3 74 71 Left 2
SYMATTR Value BC557B
SYMATTR InstName Q10
SYMBOL pnp -608 -160 R180
WINDOW 3 -3 117 Left 2
SYMATTR Value BC557B
SYMATTR InstName Q11
SYMBOL res -448 -320 R0
SYMATTR InstName R7
SYMATTR Value 140
SYMBOL res -688 -128 R0
SYMATTR InstName R8
SYMATTR Value 10k
SYMBOL res 112 -640 R0
SYMATTR InstName R9
SYMATTR Value 100
SYMBOL res 112 304 R0
SYMATTR InstName R10
SYMATTR Value 58
SYMBOL npn 64 64 R0
SYMATTR InstName Q12
SYMATTR Value BC547C
SYMBOL zener -96 208 R180
WINDOW 0 40 31 Left 2
WINDOW 3 -159 29 Left 2
SYMATTR InstName D6
SYMATTR Value BZX84C6V2L
SYMBOL res -128 -304 R0
SYMATTR InstName R11
SYMATTR Value 22k
SYMBOL pnp 64 -432 M180
WINDOW 3 74 71 Left 2
SYMATTR Value BC557B
SYMATTR InstName Q13
SYMBOL npn 208 -256 R0
SYMATTR InstName Q14
SYMATTR Value BC547C
SYMBOL res 112 -384 R0
SYMATTR InstName R12
SYMATTR Value 1.2k
SYMBOL res 112 -192 R0
SYMATTR InstName R13
SYMATTR Value 1k
SYMBOL res 256 -400 R0
SYMATTR InstName R14
SYMATTR Value 10
SYMBOL res 112 -96 R0
SYMATTR InstName R15
SYMATTR Value 1k6
SYMBOL cap 16 -224 R0
SYMATTR InstName C2
SYMATTR Value 47µ
SYMBOL pnp 736 -512 M180
SYMATTR InstName Q15
SYMBOL npn 576 -528 R0
SYMATTR InstName Q16
SYMBOL npn 736 224 R0
SYMATTR InstName Q17
SYMBOL pnp 576 240 M180
SYMATTR InstName Q18
SYMBOL res 784 -288 R0
SYMATTR InstName R16
SYMATTR Value 0R47
SYMBOL res 784 -144 R0
SYMATTR InstName R17
SYMATTR Value 0R47
SYMBOL res 624 -688 R0
SYMATTR InstName R18
SYMATTR Value 220
SYMBOL res 624 288 R0
SYMATTR InstName R19
SYMATTR Value 220
SYMBOL npn 48 272 M0
SYMATTR InstName Q3
SYMATTR Value BC547C
SYMBOL npn 560 -336 M0
SYMATTR InstName Q4
SYMATTR Value BC547C
SYMBOL pnp 560 48 R180
WINDOW 3 74 71 Left 2
SYMATTR Value BC557B
SYMATTR InstName Q5
SYMBOL res 576 -112 R0
SYMATTR InstName R20
SYMATTR Value 180k
SYMBOL res 576 -288 R0
SYMATTR InstName R21
SYMATTR Value 180k
SYMBOL res 768 -16 R90
WINDOW 0 0 56 VBottom 2
WINDOW 3 32 56 VTop 2
SYMATTR InstName R22
SYMATTR Value 12k
SYMBOL res 768 -304 R90
WINDOW 0 0 56 VBottom 2
WINDOW 3 32 56 VTop 2
SYMATTR InstName R23
SYMATTR Value 12k
