Version 4
SHEET 1 1444 728
WIRE -432 -688 -672 -688
WIRE -112 -688 -432 -688
WIRE 128 -688 -112 -688
WIRE 496 -688 128 -688
WIRE 656 -688 496 -688
WIRE 688 -688 656 -688
WIRE 128 -624 128 -688
WIRE 128 -528 128 -544
WIRE 496 -528 496 -688
WIRE 64 -480 -576 -480
WIRE 656 -464 656 -688
WIRE 496 -416 496 -448
WIRE 592 -416 496 -416
WIRE 128 -400 128 -432
WIRE 128 -400 32 -400
WIRE 272 -400 128 -400
WIRE 272 -384 272 -400
WIRE 496 -384 496 -416
WIRE 128 -368 128 -400
WIRE 432 -336 368 -336
WIRE -432 -304 -432 -688
WIRE -112 -288 -112 -688
WIRE 272 -288 272 -304
WIRE 368 -288 368 -336
WIRE 368 -288 272 -288
WIRE -672 -256 -672 -688
WIRE 272 -256 272 -288
WIRE 496 -256 496 -288
WIRE 656 -256 656 -368
WIRE 656 -256 496 -256
WIRE 656 -240 656 -256
WIRE 32 -224 32 -400
WIRE -432 -208 -432 -224
WIRE -432 -208 -608 -208
WIRE 128 -208 128 -288
WIRE 208 -208 128 -208
WIRE -432 -176 -432 -208
WIRE 128 -176 128 -208
WIRE 656 -144 656 -160
WIRE 688 -144 656 -144
WIRE -672 -128 -672 -160
WIRE -576 -128 -576 -480
WIRE -576 -128 -672 -128
WIRE -496 -128 -576 -128
WIRE -672 -112 -672 -128
WIRE 656 -112 656 -144
WIRE 128 -80 128 -96
WIRE -432 -48 -432 -80
WIRE -432 -48 -512 -48
WIRE -368 -48 -432 -48
WIRE -512 -16 -512 -48
WIRE -368 -16 -368 -48
WIRE 656 -16 656 -32
WIRE 656 -16 496 -16
WIRE -672 0 -672 -32
WIRE 32 16 32 -160
WIRE 32 16 -192 16
WIRE 128 16 128 0
WIRE 128 16 32 16
WIRE 272 16 272 -160
WIRE 272 16 128 16
WIRE 368 16 272 16
WIRE 496 16 496 -16
WIRE -192 48 -192 16
WIRE 128 64 128 16
WIRE 368 64 368 16
WIRE 432 64 368 64
WIRE 656 96 656 -16
WIRE -112 112 -112 -208
WIRE 64 112 -112 112
WIRE -512 128 -512 64
WIRE -368 128 -368 64
WIRE -112 144 -112 112
WIRE 496 144 496 112
WIRE 592 144 496 144
WIRE 496 176 496 144
WIRE 128 208 128 160
WIRE -512 256 -512 224
WIRE -192 256 -192 112
WIRE -192 256 -512 256
WIRE 64 256 -192 256
WIRE -368 272 -368 224
WIRE -368 272 -432 272
WIRE -512 288 -512 256
WIRE -368 288 -368 272
WIRE 128 320 128 304
WIRE -432 336 -432 272
WIRE -432 336 -448 336
WIRE -512 400 -512 384
WIRE -368 400 -368 384
WIRE -368 400 -512 400
WIRE -112 400 -112 208
WIRE -112 400 -368 400
WIRE 128 400 -112 400
WIRE 496 400 496 256
WIRE 496 400 128 400
WIRE 656 400 656 192
WIRE 656 400 496 400
WIRE 688 400 656 400
FLAG 688 -688 +Vcc
IOPIN 688 -688 In
FLAG 688 400 -Vcc
IOPIN 688 400 In
FLAG 688 -144 Vout
IOPIN 688 -144 Out
FLAG -576 176 Vp
IOPIN -576 176 In
FLAG -304 176 Vn
IOPIN -304 176 In
FLAG -672 0 0
SYMBOL pnp -576 224 M180
WINDOW 3 -7 125 Left 2
SYMATTR Value BC557B
SYMATTR InstName Q1
SYMBOL pnp -304 224 R180
WINDOW 3 -3 117 Left 2
SYMATTR Value BC557B
SYMATTR InstName Q2
SYMBOL npn 64 208 R0
SYMATTR InstName Q7
SYMATTR Value BC547C
SYMBOL cap -208 48 R0
SYMATTR InstName C1
SYMATTR Value 33p
SYMBOL res -528 -32 R0
SYMATTR InstName R5
SYMATTR Value 10
SYMBOL res -384 -32 R0
SYMATTR InstName R6
SYMATTR Value 10
SYMBOL npn -432 288 R0
SYMATTR InstName Q8
SYMATTR Value BC547C
SYMBOL npn -448 288 M0
SYMATTR InstName Q9
SYMATTR Value BC547C
SYMBOL pnp -496 -80 M180
WINDOW 3 74 71 Left 2
SYMATTR Value BC557B
SYMATTR InstName Q10
SYMBOL pnp -608 -160 R180
WINDOW 3 -3 117 Left 2
SYMATTR Value BC557B
SYMATTR InstName Q11
SYMBOL res -448 -320 R0
SYMATTR InstName R7
SYMATTR Value 140
SYMBOL res -688 -128 R0
SYMATTR InstName R8
SYMATTR Value 10k
SYMBOL res 112 -640 R0
SYMATTR InstName R9
SYMATTR Value 100
SYMBOL res 112 304 R0
SYMATTR InstName R10
SYMATTR Value 58
SYMBOL npn 64 64 R0
SYMATTR InstName Q12
SYMATTR Value BC547C
SYMBOL zener -96 208 R180
WINDOW 0 40 31 Left 2
WINDOW 3 -159 29 Left 2
SYMATTR InstName D6
SYMATTR Value BZX84C6V2L
SYMBOL res -128 -304 R0
SYMATTR InstName R11
SYMATTR Value 22k
SYMBOL pnp 64 -432 M180
WINDOW 3 74 71 Left 2
SYMATTR Value BC557B
SYMATTR InstName Q13
SYMBOL npn 208 -256 R0
SYMATTR InstName Q14
SYMATTR Value BC547C
SYMBOL res 112 -384 R0
SYMATTR InstName R12
SYMATTR Value 10k
SYMBOL res 112 -192 R0
SYMATTR InstName R13
SYMATTR Value 1k
SYMBOL res 256 -400 R0
SYMATTR InstName R14
SYMATTR Value 10
SYMBOL res 112 -96 R0
SYMATTR InstName R15
SYMATTR Value 1k6
SYMBOL cap 16 -224 R0
SYMATTR InstName C2
SYMATTR Value 47µ
SYMBOL pnp 592 -368 M180
SYMATTR InstName Q15
SYMBOL npn 432 -384 R0
SYMATTR InstName Q16
SYMBOL npn 592 96 R0
SYMATTR InstName Q17
SYMBOL pnp 432 112 M180
SYMATTR InstName Q18
SYMBOL res 640 -256 R0
SYMATTR InstName R16
SYMATTR Value 0R22
SYMBOL res 640 -128 R0
SYMATTR InstName R17
SYMATTR Value 0R22
SYMBOL res 480 -544 R0
SYMATTR InstName R18
SYMATTR Value 100
SYMBOL res 480 160 R0
SYMATTR InstName R19
SYMATTR Value 100
