Version 4
SHEET 1 1444 680
WIRE -432 -608 -672 -608
WIRE -112 -608 -432 -608
WIRE 128 -608 -112 -608
WIRE 528 -608 128 -608
WIRE 128 -576 128 -608
WIRE 128 -480 128 -496
WIRE 64 -432 -576 -432
WIRE 528 -400 528 -608
WIRE 528 -400 416 -400
WIRE 128 -352 128 -384
WIRE 320 -352 128 -352
WIRE 352 -352 320 -352
WIRE 528 -336 528 -400
WIRE -432 -304 -432 -608
WIRE -112 -288 -112 -608
WIRE 128 -288 128 -304
WIRE 416 -288 416 -304
WIRE 464 -288 416 -288
WIRE -672 -256 -672 -608
WIRE -432 -208 -432 -224
WIRE -432 -208 -608 -208
WIRE 320 -208 320 -352
WIRE 416 -208 416 -288
WIRE 416 -208 400 -208
WIRE 432 -208 416 -208
WIRE 528 -208 528 -240
WIRE 528 -208 512 -208
WIRE 544 -208 528 -208
WIRE -432 -176 -432 -208
WIRE -672 -128 -672 -160
WIRE -576 -128 -576 -432
WIRE -576 -128 -672 -128
WIRE -496 -128 -576 -128
WIRE -672 -112 -672 -128
WIRE 544 -64 544 -208
WIRE -432 -48 -432 -80
WIRE -432 -48 -512 -48
WIRE -368 -48 -432 -48
WIRE -512 -16 -512 -48
WIRE -368 -16 -368 -48
WIRE -672 0 -672 -32
WIRE -48 16 -192 16
WIRE 128 16 128 -32
WIRE 128 16 16 16
WIRE 272 16 128 16
WIRE 128 64 128 16
WIRE -112 112 -112 -208
WIRE 64 112 -112 112
WIRE -512 128 -512 64
WIRE -368 128 -368 64
WIRE -112 144 -112 112
WIRE 128 208 128 160
WIRE 432 208 416 208
WIRE 448 208 432 208
WIRE 544 208 544 -64
WIRE 544 208 528 208
WIRE 544 240 544 208
WIRE -512 256 -512 224
WIRE -192 256 -192 16
WIRE -192 256 -512 256
WIRE 64 256 -192 256
WIRE -368 272 -368 224
WIRE -368 272 -432 272
WIRE -512 288 -512 256
WIRE -368 288 -368 272
WIRE 432 288 432 208
WIRE 480 288 432 288
WIRE 432 304 432 288
WIRE 128 320 128 304
WIRE -432 336 -432 272
WIRE -432 336 -448 336
WIRE 272 352 272 16
WIRE 336 352 336 208
WIRE 336 352 272 352
WIRE 368 352 336 352
WIRE -512 400 -512 384
WIRE -368 400 -368 384
WIRE -368 400 -512 400
WIRE -112 400 -112 208
WIRE -112 400 -368 400
WIRE 128 400 -112 400
WIRE 432 400 128 400
WIRE 544 400 544 336
WIRE 544 400 432 400
FLAG 528 -608 +Vcc
IOPIN 528 -608 In
FLAG 544 400 -Vcc
IOPIN 544 400 In
FLAG 544 -64 Vout
IOPIN 544 -64 Out
FLAG -576 176 Vp
IOPIN -576 176 In
FLAG -304 176 Vn
IOPIN -304 176 In
FLAG -672 0 0
SYMBOL pnp -576 224 M180
WINDOW 3 -7 125 Left 2
SYMATTR Value BC557B
SYMATTR InstName Q1
SYMBOL pnp -304 224 R180
WINDOW 3 -3 117 Left 2
SYMATTR Value BC557B
SYMATTR InstName Q2
SYMBOL res 320 192 M90
WINDOW 0 0 56 VBottom 2
WINDOW 3 32 56 VTop 2
SYMATTR InstName R1
SYMATTR Value 8k
SYMBOL res 432 192 M90
WINDOW 0 0 56 VBottom 2
WINDOW 3 32 56 VTop 2
SYMATTR InstName R2
SYMATTR Value 120
SYMBOL npn 352 -400 R0
SYMATTR InstName Q3
SYMBOL npn 464 -336 R0
SYMATTR InstName Q4
SYMBOL res 304 -192 R270
WINDOW 0 32 56 VTop 2
WINDOW 3 0 56 VBottom 2
SYMATTR InstName R3
SYMATTR Value 8k
SYMBOL res 416 -192 R270
WINDOW 0 32 56 VTop 2
WINDOW 3 0 56 VBottom 2
SYMATTR InstName R4
SYMATTR Value 120
SYMBOL pnp 480 336 M180
SYMATTR InstName Q5
SYMBOL pnp 368 400 M180
SYMATTR InstName Q6
SYMBOL npn 64 208 R0
SYMATTR InstName Q7
SYMATTR Value BC547C
SYMBOL cap 16 0 R90
WINDOW 0 0 32 VBottom 2
WINDOW 3 32 32 VTop 2
SYMATTR InstName C1
SYMATTR Value 33p
SYMBOL diode 112 -224 R0
WINDOW 0 49 27 Left 2
WINDOW 3 -94 26 Left 2
SYMATTR InstName D1
SYMATTR Value 1N4148
SYMBOL diode 112 -160 R0
WINDOW 0 46 35 Left 2
WINDOW 3 -90 33 Left 2
SYMATTR InstName D2
SYMATTR Value 1N4148
SYMBOL diode 112 -96 R0
WINDOW 0 44 29 Left 2
SYMATTR InstName D3
SYMATTR Value 1N4148
SYMBOL diode 112 -288 R0
WINDOW 0 47 30 Left 2
WINDOW 3 -98 28 Left 2
SYMATTR InstName D4
SYMATTR Value 1N4148
SYMBOL diode 112 -352 R0
WINDOW 0 47 30 Left 2
WINDOW 3 -98 28 Left 2
SYMATTR InstName D5
SYMATTR Value 1N4148
SYMBOL res -528 -32 R0
SYMATTR InstName R5
SYMATTR Value 10
SYMBOL res -384 -32 R0
SYMATTR InstName R6
SYMATTR Value 10
SYMBOL npn -432 288 R0
SYMATTR InstName Q8
SYMATTR Value BC547C
SYMBOL npn -448 288 M0
SYMATTR InstName Q9
SYMATTR Value BC547C
SYMBOL pnp -496 -80 M180
WINDOW 3 74 71 Left 2
SYMATTR Value BC557B
SYMATTR InstName Q10
SYMBOL pnp -608 -160 R180
WINDOW 3 -3 117 Left 2
SYMATTR Value BC557B
SYMATTR InstName Q11
SYMBOL res -448 -320 R0
SYMATTR InstName R7
SYMATTR Value 140
SYMBOL res -688 -128 R0
SYMATTR InstName R8
SYMATTR Value 10k
SYMBOL res 112 -592 R0
SYMATTR InstName R9
SYMATTR Value 100
SYMBOL res 112 304 R0
SYMATTR InstName R10
SYMATTR Value 58
SYMBOL npn 64 64 R0
SYMATTR InstName Q12
SYMATTR Value BC547C
SYMBOL zener -96 208 R180
WINDOW 0 40 31 Left 2
WINDOW 3 -159 29 Left 2
SYMATTR InstName D6
SYMATTR Value BZX84C6V2L
SYMBOL res -128 -304 R0
SYMATTR InstName R11
SYMATTR Value 22k
SYMBOL pnp 64 -384 M180
WINDOW 3 74 71 Left 2
SYMATTR Value BC557B
SYMATTR InstName Q13
TEXT 600 -128 Left 2 ;Modelo de um TIP122
TEXT 632 440 Left 2 ;Modelo de um TIP127
RECTANGLE Normal 576 448 320 128 2
RECTANGLE Normal 576 -144 272 -448 2
