Version 4
SHEET 1 1444 728
WIRE -432 -688 -672 -688
WIRE -112 -688 -432 -688
WIRE 128 -688 -112 -688
WIRE 656 -688 128 -688
WIRE 128 -624 128 -688
WIRE 128 -528 128 -544
WIRE 64 -480 -576 -480
WIRE 128 -400 128 -432
WIRE 128 -400 32 -400
WIRE 272 -400 128 -400
WIRE 656 -400 656 -688
WIRE 656 -400 544 -400
WIRE 272 -384 272 -400
WIRE 128 -368 128 -400
WIRE 480 -352 448 -352
WIRE 656 -336 656 -400
WIRE -432 -304 -432 -688
WIRE -112 -288 -112 -688
WIRE 544 -288 544 -304
WIRE 592 -288 544 -288
WIRE 272 -272 272 -304
WIRE 448 -272 448 -352
WIRE 448 -272 272 -272
WIRE -672 -256 -672 -688
WIRE 272 -256 272 -272
WIRE 32 -224 32 -400
WIRE -432 -208 -432 -224
WIRE -432 -208 -608 -208
WIRE 128 -208 128 -288
WIRE 208 -208 128 -208
WIRE 448 -208 448 -272
WIRE 544 -208 544 -288
WIRE 544 -208 528 -208
WIRE 560 -208 544 -208
WIRE 656 -208 656 -240
WIRE 656 -208 640 -208
WIRE 672 -208 656 -208
WIRE -432 -176 -432 -208
WIRE 128 -176 128 -208
WIRE -672 -128 -672 -160
WIRE -576 -128 -576 -480
WIRE -576 -128 -672 -128
WIRE -496 -128 -576 -128
WIRE -672 -112 -672 -128
WIRE 128 -80 128 -96
WIRE 672 -64 672 -208
WIRE -432 -48 -432 -80
WIRE -432 -48 -512 -48
WIRE -368 -48 -432 -48
WIRE -512 -16 -512 -48
WIRE -368 -16 -368 -48
WIRE -672 0 -672 -32
WIRE 32 16 32 -160
WIRE 32 16 -192 16
WIRE 128 16 128 0
WIRE 128 16 32 16
WIRE 272 16 272 -160
WIRE 272 16 128 16
WIRE 400 16 272 16
WIRE -192 48 -192 16
WIRE 128 64 128 16
WIRE -112 112 -112 -208
WIRE 64 112 -112 112
WIRE -512 128 -512 64
WIRE -368 128 -368 64
WIRE -112 144 -112 112
WIRE 128 208 128 160
WIRE 560 208 544 208
WIRE 576 208 560 208
WIRE 672 208 672 -64
WIRE 672 208 656 208
WIRE 672 240 672 208
WIRE -512 256 -512 224
WIRE -192 256 -192 112
WIRE -192 256 -512 256
WIRE 64 256 -192 256
WIRE -368 272 -368 224
WIRE -368 272 -432 272
WIRE -512 288 -512 256
WIRE -368 288 -368 272
WIRE 560 288 560 208
WIRE 608 288 560 288
WIRE 560 304 560 288
WIRE 128 320 128 304
WIRE -432 336 -432 272
WIRE -432 336 -448 336
WIRE 400 352 400 16
WIRE 464 352 464 208
WIRE 464 352 400 352
WIRE 496 352 464 352
WIRE -512 400 -512 384
WIRE -368 400 -368 384
WIRE -368 400 -512 400
WIRE -112 400 -112 208
WIRE -112 400 -368 400
WIRE 128 400 -112 400
WIRE 560 400 128 400
WIRE 672 400 672 336
WIRE 672 400 560 400
FLAG 656 -688 +Vcc
IOPIN 656 -688 In
FLAG 672 400 -Vcc
IOPIN 672 400 In
FLAG 672 -64 Vout
IOPIN 672 -64 Out
FLAG -576 176 Vp
IOPIN -576 176 In
FLAG -304 176 Vn
IOPIN -304 176 In
FLAG -672 0 0
SYMBOL pnp -576 224 M180
WINDOW 3 -7 125 Left 2
SYMATTR Value BC557B
SYMATTR InstName Q1
SYMBOL pnp -304 224 R180
WINDOW 3 -3 117 Left 2
SYMATTR Value BC557B
SYMATTR InstName Q2
SYMBOL res 448 192 M90
WINDOW 0 0 56 VBottom 2
WINDOW 3 32 56 VTop 2
SYMATTR InstName R1
SYMATTR Value 8k
SYMBOL res 560 192 M90
WINDOW 0 0 56 VBottom 2
WINDOW 3 32 56 VTop 2
SYMATTR InstName R2
SYMATTR Value 120
SYMBOL npn 480 -400 R0
SYMATTR InstName Q3
SYMBOL npn 592 -336 R0
SYMATTR InstName Q4
SYMBOL res 432 -192 R270
WINDOW 0 32 56 VTop 2
WINDOW 3 0 56 VBottom 2
SYMATTR InstName R3
SYMATTR Value 8k
SYMBOL res 544 -192 R270
WINDOW 0 32 56 VTop 2
WINDOW 3 0 56 VBottom 2
SYMATTR InstName R4
SYMATTR Value 120
SYMBOL pnp 608 336 M180
SYMATTR InstName Q5
SYMBOL pnp 496 400 M180
SYMATTR InstName Q6
SYMBOL npn 64 208 R0
SYMATTR InstName Q7
SYMATTR Value BC547C
SYMBOL cap -208 48 R0
SYMATTR InstName C1
SYMATTR Value 33p
SYMBOL res -528 -32 R0
SYMATTR InstName R5
SYMATTR Value 10
SYMBOL res -384 -32 R0
SYMATTR InstName R6
SYMATTR Value 10
SYMBOL npn -432 288 R0
SYMATTR InstName Q8
SYMATTR Value BC547C
SYMBOL npn -448 288 M0
SYMATTR InstName Q9
SYMATTR Value BC547C
SYMBOL pnp -496 -80 M180
WINDOW 3 74 71 Left 2
SYMATTR Value BC557B
SYMATTR InstName Q10
SYMBOL pnp -608 -160 R180
WINDOW 3 -3 117 Left 2
SYMATTR Value BC557B
SYMATTR InstName Q11
SYMBOL res -448 -320 R0
SYMATTR InstName R7
SYMATTR Value 140
SYMBOL res -688 -128 R0
SYMATTR InstName R8
SYMATTR Value 10k
SYMBOL res 112 -640 R0
SYMATTR InstName R9
SYMATTR Value 100
SYMBOL res 112 304 R0
SYMATTR InstName R10
SYMATTR Value 58
SYMBOL npn 64 64 R0
SYMATTR InstName Q12
SYMATTR Value BC547C
SYMBOL zener -96 208 R180
WINDOW 0 40 31 Left 2
WINDOW 3 -159 29 Left 2
SYMATTR InstName D6
SYMATTR Value BZX84C6V2L
SYMBOL res -128 -304 R0
SYMATTR InstName R11
SYMATTR Value 22k
SYMBOL pnp 64 -432 M180
WINDOW 3 74 71 Left 2
SYMATTR Value BC557B
SYMATTR InstName Q13
SYMBOL npn 208 -256 R0
SYMATTR InstName Q14
SYMATTR Value BC547C
SYMBOL res 112 -384 R0
SYMATTR InstName R12
SYMATTR Value 10k
SYMBOL res 112 -192 R0
SYMATTR InstName R13
SYMATTR Value 1k
SYMBOL res 256 -400 R0
SYMATTR InstName R14
SYMATTR Value 10
SYMBOL res 112 -96 R0
SYMATTR InstName R15
SYMATTR Value 1k6
SYMBOL cap 16 -224 R0
SYMATTR InstName C2
SYMATTR Value 47µ
TEXT 728 -128 Left 2 ;Modelo de um TIP122
TEXT 760 440 Left 2 ;Modelo de um TIP127
RECTANGLE Normal 704 448 448 128 2
RECTANGLE Normal 704 -144 400 -448 2
